OPT_V10/Two_days_MYC3_SOS/powerflow_results_t1.txt
Pandapower Network Debug Info
==================================================

BUS:
       vm_pu  va_degree      p_mw    q_mvar
0   0.992605   0.113534  0.001191  0.001015
1   0.988266   0.187040  0.001792  0.001654
2   0.984456   0.286672  0.001671  0.003173
3   0.988386   0.190423  0.002927  0.004254
4   0.999886   0.000729  0.008676  0.008487
5   0.999872   0.000781  0.013007  0.010789
6   0.999862   0.000835  0.011045  0.010558
7   0.999929   0.000538  0.000000  0.000000
8   0.999929   0.000544  0.000000  0.000000
9   1.000000   0.000000 -0.040464 -0.045034
10  1.000000   0.000006  0.000000  0.000000
--------------------------------------------------

LINE:
   p_from_mw  q_from_mvar   p_to_mw  q_to_mvar         pl_mw       ql_mvar  i_from_ka   i_to_ka      i_ka  vm_from_pu  va_from_degree  vm_to_pu  va_to_degree  loading_percent
0   0.040454     0.041034 -0.040451  -0.041032  3.247737e-06  2.532314e-06   0.002218  0.002218  0.002218    1.000000        0.000006  0.999929      0.000538         0.964299
1   0.032731     0.029835 -0.032729  -0.029834  1.516955e-06  1.182795e-06   0.001705  0.001705  0.001705    0.999929        0.000538  0.999886      0.000729         0.741204
2   0.007710     0.010197 -0.007634  -0.010137  7.644600e-05  5.960621e-05   0.018453  0.018453  0.018453    0.999929        0.000544  0.992605      0.113534         8.022980
3  -0.024053    -0.021347  0.024053   0.021347  3.577474e-07  2.789415e-07   0.001238  0.001238  0.001238    0.999872        0.000781  0.999886      0.000729         0.538247
4  -0.011045    -0.010558  0.011045   0.010558  1.142137e-07  8.905429e-08   0.000588  0.000588  0.000588    0.999862        0.000835  0.999872      0.000781         0.255738
5  -0.003475    -0.004837  0.003497   0.004854  2.148860e-05  1.675501e-05   0.008699  0.008699  0.008699    0.988266        0.187040  0.992605      0.113534         3.782094
6  -0.002927    -0.004254  0.002946   0.004269  1.822815e-05  1.421279e-05   0.007542  0.007542  0.007542    0.988386        0.190423  0.992605      0.113534         3.278968
7  -0.001671    -0.003173  0.001683   0.003182  1.200408e-05  9.359780e-06   0.005258  0.005258  0.005258    0.984456        0.286672  0.988266      0.187040         2.286068
--------------------------------------------------

TRAFO:
    p_hv_mw  q_hv_mvar   p_lv_mw  q_lv_mvar    pl_mw  ql_mvar   i_hv_ka   i_lv_ka  vm_hv_pu  va_hv_degree  vm_lv_pu  va_lv_degree  loading_percent
0  0.007720   0.011196 -0.007710  -0.010197  0.00001    0.001  0.000524  0.018453  0.999929      0.000538  0.999929      0.000544         0.136011
1  0.040464   0.045034 -0.040454  -0.041034  0.00001    0.004  0.000499  0.002218  1.000000      0.000000  1.000000      0.000006         0.151357
--------------------------------------------------
